@<TRIPOS>MOLECULE
Cpptraj Generated mol2 file.
    4     2     2     0     0
SMALL
NO_CHARGES


@<TRIPOS>ATOM
      1 OXYZ       51.1097   47.4971   29.7406 OXYZ       1 VEC      0.000000
      2 VXYZ       42.9780   40.5429   33.0308 VXYZ       1 VEC      0.000000
      3 OXYZ       51.1097   47.4971   29.7406 OXYZ       2 VEC      0.000000
      4 VXYZ       29.1900   28.0709   37.3189 VXYZ       2 VEC      0.000000
@<TRIPOS>BOND
    1     1     2 1
    2     3     4 1
@<TRIPOS>SUBSTRUCTURE
      1 VEC               1 ****               0 ****  **** 
      2 VEC               3 ****               0 ****  **** 
