@<TRIPOS>MOLECULE
Cpptraj Generated mol2 file.
    4     2     2     0     0
SMALL
NO_CHARGES


@<TRIPOS>ATOM
      1 OXYZ       38.2059   42.6996   23.6170 OXYZ       1 VEC      0.000000
      2 VXYZ       39.0302   40.5526   34.9723 VXYZ       1 VEC      0.000000
      3 OXYZ       38.2059   42.6996   23.6170 OXYZ       2 VEC      0.000000
      4 VXYZ       37.9977   34.7953   53.2899 VXYZ       2 VEC      0.000000
@<TRIPOS>BOND
    1     1     2 1
    2     3     4 1
@<TRIPOS>SUBSTRUCTURE
      1 VEC               1 ****               0 ****  **** 
      2 VEC               3 ****               0 ****  **** 
