@<TRIPOS>MOLECULE
Cpptraj Generated mol2 file.
    4     2     2     0     0
SMALL
NO_CHARGES


@<TRIPOS>ATOM
      1 OXYZ       -5.6344   -2.8293    5.3210 OXYZ       1 VEC      0.000000
      2 VXYZ        4.9080   -0.7062    9.8795 VXYZ       1 VEC      0.000000
      3 OXYZ       -5.6344   -2.8293    5.3210 OXYZ       2 VEC      0.000000
      4 VXYZ       16.7020   -1.1546   27.0856 VXYZ       2 VEC      0.000000
@<TRIPOS>BOND
    1     1     2 1
    2     3     4 1
@<TRIPOS>SUBSTRUCTURE
      1 VEC               1 ****               0 ****  **** 
      2 VEC               3 ****               0 ****  **** 
